LTspice 24.0.12 for Windows
Circuit: * C:\Users\karsu\OneDrive\Documents\LTSpice Projects\Bridge_Analysis_Max_Power_Theorem.asc
Start Time: Fri Jan 23 20:55:28 2026
solver = Normal
Maximum thread count: 12



Direct Newton iteration for .op point succeeded.























































































































































































































































































































































































































































































































































































tnom = 27
temp = 27
method = modified trap

max_power: MAX(abs(v(a,b)*i(rl)))=4.94071e-05 FROM 100 TO 2000

Total elapsed time: 6.101 seconds.

