LTspice 24.0.12 for Windows
Start Time: Sun Mar 22 19:00:13 2026
Error on line 2 : vgs gate 0 v
	 Unknown parameter "v"
Error on line 4 : m1 drain gate 0 0 si7336adp
	 Unable to find definition of model ""

   --- Expanded Deck Component Count ---
M's 1
V's 2
tot: 3


    --- Expanded Netlist ---
* C:\Users\karsu\OneDrive\Documents\LTSpice Projects\MOSFET_Transfer_Characteristics.asc
vgs gate 0 v;-->  Unknown parameter "v"
vds drain 0 5
m1 drain gate 0 0 si7336adp;-->  Unable to find definition of model ""
.dc vds 0 5 0.01 vgs 0 5 0.5
.end

solver = Normal
Maximum thread count: 12
tnom = 27
temp = 27
method = modified trap
vgs: Missing value, assumed 0V @ DC
.OP point found by inspection.
.step vgs=0
.step vgs=0.5
.step vgs=1
.step vgs=1.5
.step vgs=2
.step vgs=2.5
.step vgs=3
.step vgs=3.5
.step vgs=4
.step vgs=4.5
.step vgs=5
Total elapsed time: 2.494 seconds.

